opendss_networks/LV25_232bus/Groundings.dss
new reactor.tx_busgrounding_B639 phases=1 bus1=B639.4 bus2=B639.0 r=0.3 x=0.0
new reactor.loadbusgrounding_B1441 phases=1 bus1=B1441.4 bus2=B1441.0 r=10.0 x=0.0
new reactor.loadbusgrounding_B225 phases=1 bus1=B225.4 bus2=B225.0 r=10.0 x=0.0
new reactor.loadbusgrounding_B2296 phases=1 bus1=B2296.4 bus2=B2296.0 r=10.0 x=0.0
new reactor.loadbusgrounding_B1633 phases=1 bus1=B1633.4 bus2=B1633.0 r=10.0 x=0.0
new reactor.loadbusgrounding_B2992 phases=1 bus1=B2992.4 bus2=B2992.0 r=10.0 x=0.0
new reactor.loadbusgrounding_B171 phases=1 bus1=B171.4 bus2=B171.0 r=10.0 x=0.0
new reactor.loadbusgrounding_B2432 phases=1 bus1=B2432.4 bus2=B2432.0 r=10.0 x=0.0
new reactor.loadbusgrounding_B868 phases=1 bus1=B868.4 bus2=B868.0 r=10.0 x=0.0
new reactor.loadbusgrounding_B3347 phases=1 bus1=B3347.4 bus2=B3347.0 r=10.0 x=0.0
new reactor.loadbusgrounding_B659 phases=1 bus1=B659.4 bus2=B659.0 r=10.0 x=0.0
new reactor.loadbusgrounding_B1794 phases=1 bus1=B1794.4 bus2=B1794.0 r=10.0 x=0.0
new reactor.loadbusgrounding_B1559 phases=1 bus1=B1559.4 bus2=B1559.0 r=10.0 x=0.0
new reactor.loadbusgrounding_B523 phases=1 bus1=B523.4 bus2=B523.0 r=10.0 x=0.0
new reactor.loadbusgrounding_B2453 phases=1 bus1=B2453.4 bus2=B2453.0 r=10.0 x=0.0
new reactor.loadbusgrounding_B2529 phases=1 bus1=B2529.4 bus2=B2529.0 r=10.0 x=0.0
new reactor.loadbusgrounding_B1376 phases=1 bus1=B1376.4 bus2=B1376.0 r=10.0 x=0.0
new reactor.loadbusgrounding_B1891 phases=1 bus1=B1891.4 bus2=B1891.0 r=10.0 x=0.0
new reactor.loadbusgrounding_B1936 phases=1 bus1=B1936.4 bus2=B1936.0 r=10.0 x=0.0
new reactor.loadbusgrounding_B1826 phases=1 bus1=B1826.4 bus2=B1826.0 r=10.0 x=0.0
new reactor.loadbusgrounding_B453 phases=1 bus1=B453.4 bus2=B453.0 r=10.0 x=0.0
new reactor.loadbusgrounding_B2292 phases=1 bus1=B2292.4 bus2=B2292.0 r=10.0 x=0.0
new reactor.loadbusgrounding_B577 phases=1 bus1=B577.4 bus2=B577.0 r=10.0 x=0.0
new reactor.loadbusgrounding_B465 phases=1 bus1=B465.4 bus2=B465.0 r=10.0 x=0.0
new reactor.loadbusgrounding_B1965 phases=1 bus1=B1965.4 bus2=B1965.0 r=10.0 x=0.0
new reactor.loadbusgrounding_B1287 phases=1 bus1=B1287.4 bus2=B1287.0 r=10.0 x=0.0
new reactor.loadbusgrounding_B1092 phases=1 bus1=B1092.4 bus2=B1092.0 r=10.0 x=0.0
new reactor.loadbusgrounding_B1448 phases=1 bus1=B1448.4 bus2=B1448.0 r=1.0 x=0.0
new reactor.loadbusgrounding_B3361 phases=1 bus1=B3361.4 bus2=B3361.0 r=10.0 x=0.0
new reactor.loadbusgrounding_B3350 phases=1 bus1=B3350.4 bus2=B3350.0 r=10.0 x=0.0
new reactor.loadbusgrounding_B3168 phases=1 bus1=B3168.4 bus2=B3168.0 r=10.0 x=0.0
new reactor.loadbusgrounding_B2484 phases=1 bus1=B2484.4 bus2=B2484.0 r=10.0 x=0.0
new reactor.loadbusgrounding_B686 phases=1 bus1=B686.4 bus2=B686.0 r=10.0 x=0.0
new reactor.loadbusgrounding_B1332 phases=1 bus1=B1332.4 bus2=B1332.0 r=10.0 x=0.0
new reactor.loadbusgrounding_B1402 phases=1 bus1=B1402.4 bus2=B1402.0 r=10.0 x=0.0
new reactor.loadbusgrounding_B1222 phases=1 bus1=B1222.4 bus2=B1222.0 r=10.0 x=0.0
new reactor.loadbusgrounding_B1162 phases=1 bus1=B1162.4 bus2=B1162.0 r=10.0 x=0.0
new reactor.loadbusgrounding_B2997 phases=1 bus1=B2997.4 bus2=B2997.0 r=10.0 x=0.0
new reactor.loadbusgrounding_B2575 phases=1 bus1=B2575.4 bus2=B2575.0 r=10.0 x=0.0
new reactor.loadbusgrounding_B2155 phases=1 bus1=B2155.4 bus2=B2155.0 r=10.0 x=0.0
new reactor.loadbusgrounding_B1715 phases=1 bus1=B1715.4 bus2=B1715.0 r=10.0 x=0.0
new reactor.loadbusgrounding_B1329 phases=1 bus1=B1329.4 bus2=B1329.0 r=10.0 x=0.0
new reactor.loadbusgrounding_B1549 phases=1 bus1=B1549.4 bus2=B1549.0 r=10.0 x=0.0
new reactor.loadbusgrounding_B2969 phases=1 bus1=B2969.4 bus2=B2969.0 r=10.0 x=0.0
new reactor.loadbusgrounding_B813 phases=1 bus1=B813.4 bus2=B813.0 r=10.0 x=0.0
new reactor.loadbusgrounding_B2814 phases=1 bus1=B2814.4 bus2=B2814.0 r=10.0 x=0.0
new reactor.loadbusgrounding_B1849 phases=1 bus1=B1849.4 bus2=B1849.0 r=10.0 x=0.0
new reactor.loadbusgrounding_B2878 phases=1 bus1=B2878.4 bus2=B2878.0 r=10.0 x=0.0
new reactor.loadbusgrounding_B346 phases=1 bus1=B346.4 bus2=B346.0 r=10.0 x=0.0
new reactor.loadbusgrounding_B1165 phases=1 bus1=B1165.4 bus2=B1165.0 r=10.0 x=0.0
new reactor.loadbusgrounding_B2046 phases=1 bus1=B2046.4 bus2=B2046.0 r=10.0 x=0.0
new reactor.loadbusgrounding_B1571 phases=1 bus1=B1571.4 bus2=B1571.0 r=10.0 x=0.0
new reactor.loadbusgrounding_B2687 phases=1 bus1=B2687.4 bus2=B2687.0 r=10.0 x=0.0
new reactor.loadbusgrounding_B2460 phases=1 bus1=B2460.4 bus2=B2460.0 r=10.0 x=0.0
new reactor.loadbusgrounding_B799 phases=1 bus1=B799.4 bus2=B799.0 r=10.0 x=0.0
new reactor.loadbusgrounding_B2736 phases=1 bus1=B2736.4 bus2=B2736.0 r=10.0 x=0.0
new reactor.loadbusgrounding_B2442 phases=1 bus1=B2442.4 bus2=B2442.0 r=10.0 x=0.0
new reactor.loadbusgrounding_B1787 phases=1 bus1=B1787.4 bus2=B1787.0 r=10.0 x=0.0
new reactor.loadbusgrounding_B2258 phases=1 bus1=B2258.4 bus2=B2258.0 r=10.0 x=0.0
new reactor.loadbusgrounding_B81 phases=1 bus1=B81.4 bus2=B81.0 r=10.0 x=0.0
new reactor.loadbusgrounding_B1277 phases=1 bus1=B1277.4 bus2=B1277.0 r=10.0 x=0.0
new reactor.loadbusgrounding_B624 phases=1 bus1=B624.4 bus2=B624.0 r=10.0 x=0.0
new reactor.loadbusgrounding_B3258 phases=1 bus1=B3258.4 bus2=B3258.0 r=10.0 x=0.0
new reactor.loadbusgrounding_B490 phases=1 bus1=B490.4 bus2=B490.0 r=10.0 x=0.0
new reactor.loadbusgrounding_B2722 phases=1 bus1=B2722.4 bus2=B2722.0 r=10.0 x=0.0
new reactor.loadbusgrounding_B1178 phases=1 bus1=B1178.4 bus2=B1178.0 r=10.0 x=0.0
new reactor.loadbusgrounding_B400 phases=1 bus1=B400.4 bus2=B400.0 r=10.0 x=0.0
new reactor.loadbusgrounding_B556 phases=1 bus1=B556.4 bus2=B556.0 r=10.0 x=0.0
new reactor.loadbusgrounding_B2314 phases=1 bus1=B2314.4 bus2=B2314.0 r=10.0 x=0.0
new reactor.loadbusgrounding_B2217 phases=1 bus1=B2217.4 bus2=B2217.0 r=10.0 x=0.0
new reactor.loadbusgrounding_B2900 phases=1 bus1=B2900.4 bus2=B2900.0 r=10.0 x=0.0
new reactor.loadbusgrounding_B1797 phases=1 bus1=B1797.4 bus2=B1797.0 r=10.0 x=0.0
new reactor.loadbusgrounding_B2406 phases=1 bus1=B2406.4 bus2=B2406.0 r=10.0 x=0.0
new reactor.loadbusgrounding_B3174 phases=1 bus1=B3174.4 bus2=B3174.0 r=10.0 x=0.0
new reactor.loadbusgrounding_B2191 phases=1 bus1=B2191.4 bus2=B2191.0 r=10.0 x=0.0
new reactor.loadbusgrounding_B327 phases=1 bus1=B327.4 bus2=B327.0 r=10.0 x=0.0
new reactor.loadbusgrounding_B1358 phases=1 bus1=B1358.4 bus2=B1358.0 r=10.0 x=0.0
new reactor.loadbusgrounding_B2588 phases=1 bus1=B2588.4 bus2=B2588.0 r=10.0 x=0.0
new reactor.loadbusgrounding_B1430 phases=1 bus1=B1430.4 bus2=B1430.0 r=10.0 x=0.0
new reactor.loadbusgrounding_B2595 phases=1 bus1=B2595.4 bus2=B2595.0 r=10.0 x=0.0
new reactor.loadbusgrounding_B634 phases=1 bus1=B634.4 bus2=B634.0 r=10.0 x=0.0
new reactor.loadbusgrounding_B2264 phases=1 bus1=B2264.4 bus2=B2264.0 r=10.0 x=0.0
new reactor.loadbusgrounding_B3359 phases=1 bus1=B3359.4 bus2=B3359.0 r=10.0 x=0.0
new reactor.loadbusgrounding_B1976 phases=1 bus1=B1976.4 bus2=B1976.0 r=10.0 x=0.0
new reactor.loadbusgrounding_B244 phases=1 bus1=B244.4 bus2=B244.0 r=10.0 x=0.0
new reactor.loadbusgrounding_B3388 phases=1 bus1=B3388.4 bus2=B3388.0 r=10.0 x=0.0
new reactor.loadbusgrounding_B1866 phases=1 bus1=B1866.4 bus2=B1866.0 r=10.0 x=0.0
new reactor.loadbusgrounding_B2936 phases=1 bus1=B2936.4 bus2=B2936.0 r=10.0 x=0.0
new reactor.loadbusgrounding_B1927 phases=1 bus1=B1927.4 bus2=B1927.0 r=10.0 x=0.0
new reactor.loadbusgrounding_B2651 phases=1 bus1=B2651.4 bus2=B2651.0 r=10.0 x=0.0
new reactor.loadbusgrounding_B1795 phases=1 bus1=B1795.4 bus2=B1795.0 r=10.0 x=0.0
new reactor.loadbusgrounding_B62 phases=1 bus1=B62.4 bus2=B62.0 r=10.0 x=0.0
new reactor.loadbusgrounding_B1266 phases=1 bus1=B1266.4 bus2=B1266.0 r=10.0 x=0.0
new reactor.loadbusgrounding_B999 phases=1 bus1=B999.4 bus2=B999.0 r=10.0 x=0.0
new reactor.loadbusgrounding_B1526 phases=1 bus1=B1526.4 bus2=B1526.0 r=10.0 x=0.0
new reactor.loadbusgrounding_B507 phases=1 bus1=B507.4 bus2=B507.0 r=10.0 x=0.0
new reactor.loadbusgrounding_B1875 phases=1 bus1=B1875.4 bus2=B1875.0 r=10.0 x=0.0
new reactor.loadbusgrounding_B231 phases=1 bus1=B231.4 bus2=B231.0 r=10.0 x=0.0
new reactor.loadbusgrounding_B3014 phases=1 bus1=B3014.4 bus2=B3014.0 r=10.0 x=0.0
new reactor.loadbusgrounding_B677 phases=1 bus1=B677.4 bus2=B677.0 r=10.0 x=0.0
new reactor.loadbusgrounding_B3094 phases=1 bus1=B3094.4 bus2=B3094.0 r=10.0 x=0.0
new reactor.loadbusgrounding_B2118 phases=1 bus1=B2118.4 bus2=B2118.0 r=10.0 x=0.0
new reactor.loadbusgrounding_B872 phases=1 bus1=B872.4 bus2=B872.0 r=10.0 x=0.0
new reactor.loadbusgrounding_B3177 phases=1 bus1=B3177.4 bus2=B3177.0 r=10.0 x=0.0
new reactor.loadbusgrounding_B397 phases=1 bus1=B397.4 bus2=B397.0 r=10.0 x=0.0
new reactor.loadbusgrounding_B911 phases=1 bus1=B911.4 bus2=B911.0 r=10.0 x=0.0
new reactor.loadbusgrounding_B1105 phases=1 bus1=B1105.4 bus2=B1105.0 r=10.0 x=0.0
new reactor.loadbusgrounding_B55 phases=1 bus1=B55.4 bus2=B55.0 r=10.0 x=0.0
new reactor.loadbusgrounding_B349 phases=1 bus1=B349.4 bus2=B349.0 r=10.0 x=0.0
new reactor.loadbusgrounding_B3241 phases=1 bus1=B3241.4 bus2=B3241.0 r=10.0 x=0.0
new reactor.loadbusgrounding_B1306 phases=1 bus1=B1306.4 bus2=B1306.0 r=10.0 x=0.0
new reactor.loadbusgrounding_B1540 phases=1 bus1=B1540.4 bus2=B1540.0 r=10.0 x=0.0
new reactor.loadbusgrounding_B3195 phases=1 bus1=B3195.4 bus2=B3195.0 r=10.0 x=0.0
